
     RDKit          3D

 13 12  0  0  0  0  0  0  0  0999 V2000
    1.0529    0.7164   -0.5020 O   0  0  0  0  0  0  0  0  0  0  0  0
    0.2872   -0.2621    0.1892 C   0  0  0  0  0  0  0  0  0  0  0  0
   -1.1794    0.1496    0.2803 C   0  0  0  0  0  0  0  0  0  0  0  0
   -1.8757    0.1282   -1.0768 C   0  0  0  0  0  0  0  0  0  0  0  0
   -1.2013    0.9934   -1.9847 O   0  0  0  0  0  0  0  0  0  0  0  0
    0.4969    1.0221   -1.2512 H   0  0  0  0  0  0  0  0  0  0  0  0
    0.3983   -1.2208   -0.3274 H   0  0  0  0  0  0  0  0  0  0  0  0
    0.7117   -0.3655    1.1924 H   0  0  0  0  0  0  0  0  0  0  0  0
   -1.2320    1.1677    0.6845 H   0  0  0  0  0  0  0  0  0  0  0  0
   -1.7084   -0.5206    0.9662 H   0  0  0  0  0  0  0  0  0  0  0  0
   -1.8776   -0.8824   -1.4974 H   0  0  0  0  0  0  0  0  0  0  0  0
   -2.9106    0.4691   -0.9735 H   0  0  0  0  0  0  0  0  0  0  0  0
   -1.7320    1.0133   -2.8018 H   0  0  0  0  0  0  0  0  0  0  0  0
  1  2  1  0
  2  3  1  0
  3  4  1  0
  4  5  1  0
  1  6  1  0
  2  7  1  0
  2  8  1  0
  3  9  1  0
  3 10  1  0
  4 11  1  0
  4 12  1  0
  5 13  1  0
M  END
$$$$
